      12
 i =       20, time =       20.000, E =       -68.9778215227
  O         0.0102121326        0.0082450214        0.0258173651
  H         0.0011582980       -0.0132266233       -0.0121033560
  H        -0.0123640908        0.0039438113       -0.0130423386
  O         0.0005078165       -0.0022005368        0.0001827544
  H        -0.0125006144       -0.0143064065       -0.0000614894
  H         0.0132352169        0.0161774021       -0.0019829286
  O        -0.0052064897        0.0009704681        0.0071012763
  H        -0.0087157859        0.0035490175        0.0015360158
  H         0.0131859471       -0.0043854925       -0.0089008239
  O         0.0295545283        0.0081232015        0.0398825263
  H        -0.0149641237       -0.0001739602       -0.0009636305
  H        -0.0147979999       -0.0081434238       -0.0401153032
      12
 i =       21, time =       21.000, E =       -68.9755437453
  O         0.0303052317       -0.0065731816        0.0424437305
  H        -0.0016013990       -0.0009275749       -0.0040939960
  H        -0.0304565436        0.0059723068       -0.0378698251
  O         0.0050859703       -0.0130343569        0.0220011662
  H        -0.0042172351        0.0055661721       -0.0139265178
  H        -0.0007481943        0.0074111628       -0.0098332246
  O         0.0001483569       -0.0013082448        0.0424492183
  H         0.0060439705       -0.0026121984       -0.0341943831
  H        -0.0069766144        0.0034709851       -0.0085099322
  O         0.0025323271        0.0101493554        0.0437780376
  H         0.0141092427       -0.0024741181       -0.0030324709
  H        -0.0168895666       -0.0075244283       -0.0421495104
      12
 i =       22, time =       22.000, E =       -68.9723248123
  O         0.0335055352       -0.0223836483        0.0346104595
  H        -0.0046719265        0.0143965413        0.0055441867
  H        -0.0306213401        0.0065952030       -0.0402792055
  O         0.0091840210       -0.0181660032        0.0410637382
  H         0.0043256547        0.0212885655       -0.0252439822
  H        -0.0144456375       -0.0028994354       -0.0176576872
  O         0.0137783287       -0.0069222516        0.0597275234
  H         0.0149959476       -0.0060552771       -0.0511823329
  H        -0.0296067618        0.0121169616       -0.0088047186
  O        -0.0336290172        0.0063977692        0.0209944277
  H         0.0395185099       -0.0028786832       -0.0055621115
  H        -0.0058697372       -0.0028984716       -0.0165854098
