      12
 i =       20, time =       20.000, E =       -68.9778215227
  O        -0.0001207346        0.0001074056        0.0004703622
  H         0.0005855913       -0.0002574846        0.0001154687
  H         0.0015998529       -0.0000622831        0.0008679529
  O        -0.0002418940       -0.0000233290        0.0000124543
  H         0.0004797014       -0.0015905338        0.0001841869
  H         0.0011941590       -0.0007528683       -0.0000373856
  O        -0.0000234917       -0.0001275842        0.0000186304
  H         0.0002868016       -0.0000755973        0.0019817826
  H         0.0007269848       -0.0006756403       -0.0004509122
  O         0.0001475795       -0.0003198904       -0.0003427299
  H        -0.0009340985        0.0011038179       -0.0002542683
  H         0.0007589708        0.0004430338       -0.0000267723
      12
 i =       21, time =       21.000, E =       -68.9755437453
  O        -0.0000795425        0.0000918312        0.0005236683
  H         0.0005186287       -0.0004079899       -0.0000691496
  H         0.0012742614        0.0000486147        0.0003249063
  O        -0.0002286140       -0.0000366232        0.0000280261
  H         0.0003974182       -0.0016667569        0.0000261553
  H         0.0013137980       -0.0004568710       -0.0001927501
  O        -0.0000339289       -0.0001437524        0.0000573246
  H         0.0002544726       -0.0000749897        0.0014528407
  H         0.0009090015       -0.0006714956       -0.0006097483
  O         0.0001568165       -0.0002942565       -0.0002637349
  H        -0.0009396582        0.0011656603       -0.0003041364
  H         0.0003321132        0.0002716318       -0.0009836074
      12
 i =       22, time =       22.000, E =       -68.9723248123
  O        -0.0000272789        0.0000584253        0.0005504840
  H         0.0003970076       -0.0002502477       -0.0000466458
  H         0.0006807280        0.0001984450       -0.0005602733
  O        -0.0002087397       -0.0000628053        0.0000727154
  H         0.0005128035       -0.0012912908       -0.0004154540
  H         0.0010987018       -0.0003854393       -0.0005791533
  O        -0.0000317493       -0.0001667080        0.0001405947
  H         0.0004909749       -0.0001944337        0.0003862865
  H         0.0006119356       -0.0004846438       -0.0007544230
  O         0.0001210032       -0.0002674999       -0.0002014346
  H        -0.0003303746        0.0011846554       -0.0004095307
  H         0.0000510254        0.0001585657       -0.0017250385
